135
id,posx,posy,posz
C 1.8882771590637903 8.842374252255222 1.1638736139574584
C 2.0872745847906047 9.549764192435639 0.7506512015547718
C 0.9967712584386521 9.638187934958193 1.9815749991002207
C 2.2168289693462984 6.58756881793014 0.0765619969400138
C 1.8469795878704798 7.38338250063311 1.2283561457078345
C 2.06012128131386 8.090772440813529 0.8222485785856704
C 0.9277810048125474 8.17919618333608 2.0147989541930564
C 1.3223116752916353 8.886586123516498 1.7809223037785347
C -0.2673685186802305 8.97500986603905 2.2019778595451758
C 0.19120543089036907 9.682399806219468 2.2098943191714944
C -1.3829943250568282 9.770823548742023 1.7342200308983349
C 2.2128654263316547 5.128577066308028 0.15303275353477944
C 1.803480936197996 5.924390749010998 1.2913748222258377
C 2.0305128923739026 6.631780689191417 0.8928660664465757
C 0.857685097029759 6.720204431713968 2.0456218352964135
C 1.2600532016490271 7.427594371894387 1.825502217945092
C -0.34321297843629256 7.516018114416938 2.191437261283403
C 0.11481447989274897 8.223408054597357 2.2151772059849684
C -1.4420288344155645 8.31183179711991 1.6854510551844877
C -1.0645736408462605 9.019221737300327 1.9459895636728761
C -2.1119404436738773 9.10764547982288 0.6781592593801259
C -1.9273244346408271 9.815035420003298 1.0980040720984734
C -2.1536952480922973 9.903459162525849 -0.5308382023301175
C 2.2062647697696165 3.6695853146859165 0.2293211381051368
C 1.7578330422115767 4.465398997388887 1.3528545429637318
C 1.9984847028473753 5.1727889375693055 0.962419508942671
C 0.7865670697082666 5.261212680091856 2.074006910200389
C 1.1962930987934697 5.968602620272275 1.867906646620096
C -0.4186484247998955 6.057026362794827 2.1782850858234744
C 0.03828670230966969 6.7644163029752455 2.2178202242595466
C -1.4993448507607996 6.852840045497796 1.6346734955964415
C -1.1311073508018235 7.560229985678214 1.9080850556698186
C -2.1340894632469465 7.648653728200767 0.6048591419221285
C -1.9640748813099633 8.356043668381187 1.030826017966013
C -2.1340894632648997 8.444467410903739 -0.6048591418587849
C -2.212865426332773 9.151857351084155 -0.15303275351861287
C -1.499344850809319 9.240281093606708 -1.6346734955519386
C -1.8034809362074302 9.947671033787126 -1.291374822212662
C 2.197034865787347 2.2105935630638047 0.30533623634149326
C 1.7100903053691419 3.0064072457667748 1.4127220413764663
C 1.9640748813330056 3.7137971859471937 1.0308260179221098
C 0.7145116755452215 3.802220928469745 2.0999203518747978
C 1.131107350844476 4.509610868650164 1.9080850556445343
C -0.49358495992402707 4.598034611172715 2.162537006861434
C -0.03828670226009446 5.305424551353134 2.2178202242604024
C -1.554874069512693 5.393848293875685 1.581947864711556
C -1.1962930987517155 6.101238234056104 1.867906646646837
C -2.1536952480765414 6.189661976578655 0.5308382023940421
C -1.9984847028258614 6.897051916759073 0.9624195089873449
C -2.1119404436940057 6.985475659281626 -0.6781592593174404
C -2.206264769771292 7.692865599462044 -0.22932113808901836
C -1.4420288344655907 7.781289341984597 -1.6854510551416864
C -1.7578330422214599 8.488679282165014 -1.3528545429508898
C -0.3432129785013365 8.577103024687565 -2.1914372612732165
C -0.786567069723419 9.284492964867983 -2.0740069101946426
C 2.1851867138358494 0.751601811441693 0.38098745961474284
C 1.6603096215924302 1.547415494144663 1.4709059722348041
C 1.9273244346653708 2.254805434325082 1.0980040720553916
C 0.641604784315554 2.3432291768476334 2.123331278781482
C 1.0645736408897604 3.050619117028052 1.9459895636490792
C -0.5679332805236251 3.139042859550603 2.1442117916805903
C -0.11481447984323134 3.846432799731022 2.215177205987535
C -1.6085503154518634 3.9348565422535735 1.527336996660568
C -1.2600532016082213 4.6422464824339915 1.825502217973258
C -2.1707344335783683 4.730670224956543 0.45618465294835814
C -2.0305128923539444 5.438060165136962 0.8928660664919642
C -2.08727458478481 5.526483907659514 -0.7506512015708844
C -2.1970348657895777 6.233873847839932 -0.3053362363254423
C -1.382994325108303 6.322297590362484 -1.734220030857285
C -1.7100903053794627 7.029687530542903 -1.4127220413639727
C -0.2673685187455892 7.118111273065455 -2.20197785953724
C -0.7145116755605618 7.825501213245873 -2.099920351869578
C 0.4935849599082284 8.621314895948842 -2.16253700686504
C 1.5548740695011363 9.417128578651813 -1.5819478647229148
C 1.608550315463057 0.08842374252255136 1.5273369966487793
C 1.888277159046277 0.79581368270297 1.163873613985872
C 0.567933280539339 0.8842374252255214 2.1442117916764283
C 0.996771258408833 1.59162736540594 1.9815749991152203
C -0.6416047842999927 1.6800511079284914 2.123331278786184
C -0.19120543084097005 2.3874410481089106 2.2098943191757683
C -1.6603096215816504 2.4758647906314613 1.470905972246972
C -1.3223116752518254 3.18325473081188 1.7809223038080928
C -2.1851867138330574 3.2716784733344317 0.38098745963075636
C -2.0601212812954794 3.9790684135148506 0.8222485786317209
C -2.060121281307512 4.067492156037401 -0.8222485786015733
C -2.185186713838633 4.774882096217821 -0.3809874595987786
C -1.3223116752778863 4.863305838740372 -1.7809223037887427
C -1.6603096216031774 5.57069577892079 -1.4709059722226732
C -0.1912054308733118 5.659119521443342 -2.20989431917297
C -0.6416047843310654 6.36650946162376 -2.1233312787767953
C 0.5679332805079614 7.162323144326731 -2.144211791684739
C 1.6085503154407057 7.958136827029701 -1.527336996672319
C 2.170734433575036 8.753950509732672 -0.4561846529642162
C 0.9277810047822298 0.1326356137838285 2.0147989542070173
C -0.7145116755298322 0.22105935630637963 2.099920351880034
C -0.26736851871336575 0.9284492964867985 2.2019778595411523
C -1.710090305358788 1.01687303900935 1.4127220413889994
C -1.3829943250829222 1.7242629791897688 1.7342200308775255
C -2.1970348657851093 1.81268672171232 0.30533623635759444
C -2.0872745847738248 2.520076661892739 0.7506512016014302
C -2.030512892367011 2.6085004044152904 -0.8928660664622492
C -2.1707344335850443 3.315890344595709 -0.4561846529165909
C -1.2600532016349357 3.40431408711826 -1.8255022179548186
C -1.6085503154742145 4.1117040272986785 -1.5273369966370287
C -0.11481447987564944 4.200127769821231 -2.2151772059858548
C -0.5679332805550058 4.907517710001648 -2.1442117916722787
C 0.641604784284481 5.703331392704619 -2.1233312787908716
C 1.6603096215709043 6.499145075407589 -1.470905972259102
C 2.1851867138302734 7.2949587581105595 -0.3809874596467229
C -1.4420288344409262 0.265271227567657 1.6854510551627886
C -2.2062647697679356 0.35369497009020856 0.22932113812130553
C -2.1119404436840816 1.061084910270627 0.6781592593483473
C -1.9984847028399457 1.1495086527931786 -0.9624195089580984
C -2.15369524808431 1.856898592973597 -0.5308382023625243
C -1.196293098779051 1.9453223354961486 -1.8679066466293301
C -1.5548740695358438 2.652712275676567 -1.5819478646888012
C -0.03828670229255173 2.741136018199119 -2.217820224259842
C -0.49358495995567486 3.4485259583795376 -2.162537006854211
C 0.714511675514491 4.244339641082506 -2.099920351885254
C 1.7100903053484666 5.040153323785478 -1.412722041401493
C 2.1970348657828787 5.835967006488447 -0.30533623637364365
C -2.134089463255798 0.39790684135148524 -0.6048591418908976
C -1.131107350829748 0.48633058387403727 -1.9080850556532651
C -1.4993448507847214 1.1937205240544557 -1.6346734955745001
C 0.0382867022772139 1.2821442665770069 -2.2178202242601066
C -0.4186484248317728 1.9895342067574253 -2.1782850858173477
C 0.7865670696779149 2.785347889460396 -2.0740069102119
C 1.7578330421917787 3.5811615721633645 -1.352854542989456
C 2.2062647697662605 4.376975254866336 -0.2293211381374251
C -0.34321297846836274 0.530542455135314 -2.191437261278381
C 0.8576850969998236 1.3263561378382835 -2.0456218353089644
C 1.8034809361790987 2.122169820541254 -1.291374822252229
C 2.212865426329415 2.9179835032442236 -0.15303275356716645
C 1.846979587852503 0.6631780689191418 -1.2283561457348644
C 2.216828969345178 1.4589917516221123 -0.07656199697245367
